# Add some non-DEVC namespaces, to check parser ignores these:
&HEAD CHID='no_vents', TITLE='no_vents' /

&MESH XB= 0, 3, 0, 4, 0, 3, IJK= 30, 40, 30 /
&OBST XB= 1.25, 1.75, 1.25, 1.75, 1.25, 1.75/

&TIME T_END=60. /
&DUMP NFRAMES=60, WRITE_XYZ=.TRUE. /

# Define a point DEVC device
&DEVC XB=1.5,1.5,0,0,1.5,1.5, QUANTITY='VISIBILITY', ID='visibility_point' /

# Define line DEVC devices
&DEVC XB=2,2,1,3,2,2, QUANTITY='TEMPERATURE', ID='temp_line_y', POINTS=20,
Y_ID="y_coords", STATISTICS_START=20., STATISTICS_END=40. /

# Define point DEVC
&DEVC XYZ=1.5,0,1.5, QUANTITY='TEMPERATURE', ID='air_temperature_point' /
&DEVC XBP=1.5,1.5,0,0,1.5,1.5, QUANTITY='U-VELOCITY', ID='velocity_point' /

# Define another line DEVC using HIDE_COORDINATES, should use coords from before point DEVCs
&DEVC QUANTITY='U-VELOCITY', ID='velocity_line_y', HIDE_COORDINATES=T
STATISTICS_START=20., STATISTICS_END=40. /
