# Add some non-DEVC namespaces, to check parser ignores these:
&HEAD CHID='no_vents', TITLE='no_vents' /

&MESH XB= 0, 3, 0, 4, 0, 3, IJK= 30, 40, 30 /
&OBST XB= 1.25, 1.75, 1.25, 1.75, 1.25, 1.75/

&TIME T_END=60. /
&DUMP NFRAMES=60, WRITE_XYZ=.TRUE. /

# Define single line DEVC device, using XBP
&DEVC XBP=2,2,1,3,2,2, QUANTITY='TEMPERATURE', ID='temp_line', POINTS=20,
STATISTICS_START=20., STATISTICS_END=40. /

